Circuit: * C:\Users\idmsx\Documents\Git\WSN\Sensors\Solar Irradiance\LTspice\Irradiance_Amplifier_Circuit.asc


Date: Tue Dec 02 18:07:22 2014
Total elapsed time: 0.015 seconds.

tnom = 27
temp = 27
method = trap
totiter = 28
traniter = 0
tranpoints = 0
accept = 0
rejected = 0
matrix size = 30
fillins = 45
solver = Normal
Matrix Compiler1: 3.91 KB object code size
Matrix Compiler2: 3.10 KB object code size

