Circuit: * C:\Users\idmsx\Documents\Git\WSN\Sensors\Solar Irradiance\LTspice\Irradiance_Amplifier_Circuit.asc


Date: Mon Dec 01 18:01:39 2014
Total elapsed time: 0.016 seconds.

tnom = 27
temp = 27
method = trap
totiter = 134
traniter = 0
tranpoints = 0
accept = 0
rejected = 0
matrix size = 30
fillins = 45
solver = Normal
Matrix Compiler1: 3.91 KB object code size  1.5/1.0/[0.4]
Matrix Compiler2: 3.10 KB object code size  0.6/1.0/[0.4]


